#======================================================================

# CRYSTAL DATA

#----------------------------------------------------------------------

data_VESTA_phase_1


_pd_phase_name                         ''
_cell_length_a                         10.35(1)
_cell_length_b                         3.70(1)
_cell_length_c                         11.25(1)
_cell_angle_alpha                      90
_cell_angle_beta                       90
_cell_angle_gamma                      90
_symmetry_space_group_name_H-M         'P n m a'
_symmetry_Int_Tables_number            62

loop_
_symmetry_equiv_pos_as_xyz
   'x, y, z'
   '-x, -y, -z'
   '-x+1/2, -y, z+1/2'
   'x+1/2, y, -z+1/2'
   '-x, y+1/2, -z'
   'x, -y+1/2, z'
   'x+1/2, -y+1/2, -z+1/2'
   '-x+1/2, y+1/2, z+1/2'

loop_
   _atom_site_label
   _atom_site_occupancy
   _atom_site_fract_x
   _atom_site_fract_y
   _atom_site_fract_z
   _atom_site_adp_type
   _atom_site_B_iso_or_equiv
   _atom_site_type_symbol
   Y1         1.0     0.1156(4)     0.250000      0.2231(4)    Biso  0.510000 Y
   Y2         1.0     0.1366(4)     0.250000      0.5578(4)    Biso  0.430000 Y
   Ti1        1.0     0.1745(8)     0.250000      0.8806(7)    Biso  0.720000 Ti
   O1         1.0     0.495(4)      0.250000      0.102(3)     Biso  1.200000 O
   O2         1.0     0.223(4)      0.250000      0.045(3)     Biso  0.900000 O
   O3         1.0     0.259(3)      0.250000      0.734(3)     Biso  0.900000 O
   O4         1.0     0.508(3)      0.250000      0.660(3)     Biso  0.800000 O
   O5         1.0     0.269(4)      0.250000      0.383(3)     Biso  1.400000 O
