#======================================================================

# CRYSTAL DATA

#----------------------------------------------------------------------

data_VESTA_phase_1


_pd_phase_name                         ''
_cell_length_a                         5.513(1)
_cell_length_b                         5.513(1)
_cell_length_c                         7.807(2)
_cell_angle_alpha                      90
_cell_angle_beta                       90
_cell_angle_gamma                      90
_symmetry_space_group_name_H-M         'I 4/m c m'
_symmetry_Int_Tables_number            140

loop_
_symmetry_equiv_pos_as_xyz
   'x, y, z'
   '-x, -y, -z'
   '-x, -y, z'
   'x, y, -z'
   '-y, x, z'
   'y, -x, -z'
   'y, -x, z'
   '-y, x, -z'
   '-x, y, -z+1/2'
   'x, -y, z+1/2'
   'x, -y, -z+1/2'
   '-x, y, z+1/2'
   'y, x, -z+1/2'
   '-y, -x, z+1/2'
   '-y, -x, -z+1/2'
   'y, x, z+1/2'
   'x+1/2, y+1/2, z+1/2'
   '-x+1/2, -y+1/2, -z+1/2'
   '-x+1/2, -y+1/2, z+1/2'
   'x+1/2, y+1/2, -z+1/2'
   '-y+1/2, x+1/2, z+1/2'
   'y+1/2, -x+1/2, -z+1/2'
   'y+1/2, -x+1/2, z+1/2'
   '-y+1/2, x+1/2, -z+1/2'
   '-x+1/2, y+1/2, -z'
   'x+1/2, -y+1/2, z'
   'x+1/2, -y+1/2, -z'
   '-x+1/2, y+1/2, z'
   'y+1/2, x+1/2, -z'
   '-y+1/2, -x+1/2, z'
   '-y+1/2, -x+1/2, -z'
   'y+1/2, x+1/2, z'

loop_
   _atom_site_label
   _atom_site_occupancy
   _atom_site_fract_x
   _atom_site_fract_y
   _atom_site_fract_z
   _atom_site_adp_type
   _atom_site_B_iso_or_equiv
   _atom_site_type_symbol
   Sr1        1.0     0.000000      0.500000      0.250000     Biso  0.340000 Sr
   Ti1        1.0     0.000000      0.000000      0.000000     Biso  0.150000 Ti
   O1         1.0     0.000000      0.000000      0.250000     Biso  0.470000 O
   O2         1.0     0.2412(2)     0.7412(2)     0.000000     Biso  0.460000 O

loop_
   _atom_site_aniso_label
   _atom_site_aniso_U_11
   _atom_site_aniso_U_22
   _atom_site_aniso_U_33
   _atom_site_aniso_U_12
   _atom_site_aniso_U_13
   _atom_site_aniso_U_23
   Sr1	 0.00000  0.00000  0.00000  0.00000  0.00000  0.00000
   Ti1	 0.00000  0.00000  0.00000  0.00000  0.00000  0.00000
   O1	 0.00000  0.00000  0.00000  0.00000  0.00000  0.00000
   O2	 0.00000  0.00000  0.00000  0.00000  0.00000  0.00000
