#======================================================================

# CRYSTAL DATA

#----------------------------------------------------------------------

data_VESTA_phase_1


_pd_phase_name                         ''
_cell_length_a                         3.88656(7)
_cell_length_b                         3.88656(7)
_cell_length_c                         12.5975(4)
_cell_angle_alpha                      90
_cell_angle_beta                       90
_cell_angle_gamma                      90
_symmetry_space_group_name_H-M         'I 4/m m m'
_symmetry_Int_Tables_number            139

loop_
_symmetry_equiv_pos_as_xyz
   'x, y, z'
   '-x, -y, -z'
   '-x, -y, z'
   'x, y, -z'
   '-y, x, z'
   'y, -x, -z'
   'y, -x, z'
   '-y, x, -z'
   '-x, y, -z'
   'x, -y, z'
   'x, -y, -z'
   '-x, y, z'
   'y, x, -z'
   '-y, -x, z'
   '-y, -x, -z'
   'y, x, z'
   'x+1/2, y+1/2, z+1/2'
   '-x+1/2, -y+1/2, -z+1/2'
   '-x+1/2, -y+1/2, z+1/2'
   'x+1/2, y+1/2, -z+1/2'
   '-y+1/2, x+1/2, z+1/2'
   'y+1/2, -x+1/2, -z+1/2'
   'y+1/2, -x+1/2, z+1/2'
   '-y+1/2, x+1/2, -z+1/2'
   '-x+1/2, y+1/2, -z+1/2'
   'x+1/2, -y+1/2, z+1/2'
   'x+1/2, -y+1/2, -z+1/2'
   '-x+1/2, y+1/2, z+1/2'
   'y+1/2, x+1/2, -z+1/2'
   '-y+1/2, -x+1/2, z+1/2'
   '-y+1/2, -x+1/2, -z+1/2'
   'y+1/2, x+1/2, z+1/2'

loop_
   _atom_site_label
   _atom_site_occupancy
   _atom_site_fract_x
   _atom_site_fract_y
   _atom_site_fract_z
   _atom_site_adp_type
   _atom_site_B_iso_or_equiv
   _atom_site_type_symbol
   Sr1        1.0     0.000000      0.000000      0.35377(18)  Biso  0.529011 Sr
   Ti1        1.0     0.500000      0.500000      0.500000     Biso  0.001200 Ti
   O1         1.0     0.500000      0.000000      0.500000     Biso  0.439526 O
   O2         1.0     0.000000      0.000000      0.1572(2)    Biso  0.584281 O

loop_
   _atom_site_aniso_label
   _atom_site_aniso_U_11
   _atom_site_aniso_U_22
   _atom_site_aniso_U_33
   _atom_site_aniso_U_12
   _atom_site_aniso_U_13
   _atom_site_aniso_U_23
   Sr1	 0.00640  0.00640  0.00730  0.00000  0.00000  0.00000
   Ti1	 0.00000  0.00000  0.00000  0.00000  0.00000  0.00000
   O1	 0.00390  0.00390  0.00890  0.00000  0.00000  0.00000
   O2	 0.00750  0.00750  0.00720  0.00000  0.00000  0.00000
